CM Moxon Rectangle
CE
GW 1  5 60.2 -123.6 0 92 -123.6 0 1
GW 2  35 92 -123.6 0 92 123.6 0 1
GW 3  5 92 123.6 0 60.2 123.6 0 1
GW 4  7 47.7 -123.6 0 0 -123.6 0 1
GW 5  35 0 -123.6 0 0 123.6 0 1
GW 6  7 0 123.6 0 47.7 123.6 0 1
GS 0 0 0.001
GE 0
EX 0 2 18 0 1 0
FR 0 1 0 0 435 1
RP 0 1 361 1000 90 0 1 1
RP 0 181 1 1000 -90 0 1 1
EN
