CM Moxon Rectangle
CE
GW 1  5 58.8 -120.5 0 89.7 -120.5 0 1
GW 2  35 89.7 -120.5 0 89.7 120.5 0 1
GW 3  5 89.7 120.5 0 58.8 120.5 0 1
GW 4  7 46.6 -120.5 0 0 -120.5 0 1
GW 5  35 0 -120.5 0 0 120.5 0 1
GW 6  7 0 120.5 0 46.6 120.5 0 1
GS 0 0 0.001
GE 0
EX 0 2 18 0 1 0
FR 0 1 0 0 446.00625 1
RP 0 1 361 1000 90 0 1 1
RP 0 181 1 1000 -90 0 1 1
EN
