CM Moxon Rectangle
CE
GW 1  5 58 -124.15 0 91.9 -124.15 0 0.45
GW 2  35 91.9 -124.15 0 91.9 124.15 0 0.45
GW 3  5 91.9 124.15 0 58 124.15 0 0.45
GW 4  7 47.5 -124.15 0 0 -124.15 0 0.45
GW 5  35 0 -124.15 0 0 124.15 0 0.45
GW 6  7 0 124.15 0 47.5 124.15 0 0.45
GS 0 0 0.001
GE 0
EX 0 2 18 0 1 0
FR 0 1 0 0 435 1
RP 0 1 361 1000 90 0 1 1
RP 0 181 1 1000 -90 0 1 1
EN
