CM 
CE
SY Freq=433
SY rad=.4
SY lg_seg=80
SY EAST=151
SY WEST=151
SY SOUTH=171
SY NORTH=171
SY feed=2
GW	1	1	-feed	-feed	0	feed	feed	0	rad
GW	2	lg_seg	feed	feed	0	EAST	feed	0	rad
GW	3	lg_seg	feed	feed	0	feed	NORTH	0	rad
GW	4	lg_seg	-feed	-feed	0	-WEST	-feed	0	rad
GW	5	lg_seg	-feed	-feed	0	-feed	-SOUTH	0	rad
GS	0	0	0.001
GE	0
GN	-1
EK
EX	0	1	1	0	1	0	0
FR	0	0	0	0	Freq	0
EN
