CM 
CE
SY Freq=433
SY rad=.44
SY lg_seg=60
SY short=150
SY long=170
SY SOUTH=long
SY NORTH=long
SY feed=1
SY EAST=short
SY WEST=short
GW	1	1	-feed	-feed	0	feed	feed	0	rad
GW	2	lg_seg	feed	feed	0	EAST	feed	0	rad
GW	3	lg_seg	feed	feed	0	feed	NORTH	0	rad
GW	4	lg_seg	-feed	-feed	0	-WEST	-feed	0	rad
GW	5	lg_seg	-feed	-feed	0	-feed	-SOUTH	0	rad
GW	6	lg_seg*2	feed	feed	0	EAST*1.7	NORTH*1.7	0	rad
GS	0	0	0.001
GE	0
GN	-1
EK
EX	0	1	1	0	1	0	0
FR	0	0	0	0	Freq	0
EN
