CM Moxon Rectangle
CE
GW 1  5 21.2 -45.85 0 33.9 -45.85 0 0.127254
GW 2  35 33.9 -45.85 0 33.9 45.85 0 0.127254
GW 3  5 33.9 45.85 0 21.2 45.85 0 0.127254
GW 4  7 17.5 -45.85 0 0 -45.85 0 0.127254
GW 5  35 0 -45.85 0 0 45.85 0 0.127254
GW 6  7 0 45.85 0 17.5 45.85 0 0.127254
GS 0 0 0.001
GE 0
EX 0 2 18 0 1 0
FR 0 1 0 0 1180 1
RP 0 1 361 1000 90 0 1 1
RP 0 181 1 1000 -90 0 1 1
EN
