CM Moxon Rectangle
CE
GW	1	5	21.7	-45.7	0	33.9	-45.7	0	0.22
GW	3	5	33.9	45.7	0	21.7	45.7	0	0.22
GW	4	7	17.5	-45.7	0	0	-45.7	0	0.22
GW	5	35	0	-45.7	0	0	45.7	0	0.22
GW	6	7	0	45.7	0	17.5	45.7	0	0.22
GW	7	30	33.9	-1	0	33.9	-1	100	.22	'coax
GW	8	17	33.9	-45.7	0	33.9	-1	0	.22
GW	9	17	33.9	45.7	0	33.9	1	0	.22
GW	2	1	33.9	1	0	33.9	-1	0	.22
GS	0	0	0.001
GE	0
GN	-1
EK
EX	0	2	1	0	1	0	0	0

FR	0	0	0	0	1180	0
RP	0	181	1	1000	-90	0	1	1		
EN
