CM Length X1 = .26
CM Length X2 = .26
CM Length Y = .26
CM X sections = 40
CM Y sections = 40
CM Rotate X, Y, Z = 0, 0, 0
CM Move X, Y, Z = 0, 0, 0
CE
GW     1    1     -.13     -.13       .0     -.13   -.1235       .0  .000517
GW     2    1     -.13   -.1235       .0     -.13    -.117       .0  .000517
GW     3    1     -.13    -.117       .0     -.13   -.1105       .0  .000517
GW     4    1     -.13   -.1105       .0     -.13    -.104       .0  .000517
GW     5    1     -.13    -.104       .0     -.13   -.0975       .0  .000517
GW     6    1     -.13   -.0975       .0     -.13    -.091       .0  .000517
GW     7    1     -.13    -.091       .0     -.13   -.0845       .0  .000517
GW     8    1     -.13   -.0845       .0     -.13    -.078       .0  .000517
GW     9    1     -.13    -.078       .0     -.13   -.0715       .0  .000517
GW    10    1     -.13   -.0715       .0     -.13    -.065       .0  .000517
GW    11    1     -.13    -.065       .0     -.13   -.0585       .0  .000517
GW    12    1     -.13   -.0585       .0     -.13    -.052       .0  .000517
GW    13    1     -.13    -.052       .0     -.13   -.0455       .0  .000517
GW    14    1     -.13   -.0455       .0     -.13    -.039       .0  .000517
GW    15    1     -.13    -.039       .0     -.13   -.0325       .0  .000517
GW    16    1     -.13   -.0325       .0     -.13    -.026       .0  .000517
GW    17    1     -.13    -.026       .0     -.13   -.0195       .0  .000517
GW    18    1     -.13   -.0195       .0     -.13    -.013       .0  .000517
GW    19    1     -.13    -.013       .0     -.13   -.0065       .0  .000517
GW    20    1     -.13   -.0065       .0     -.13       .0       .0  .000517
GW    21    1     -.13       .0       .0     -.13    .0065       .0  .000517
GW    22    1     -.13    .0065       .0     -.13     .013       .0  .000517
GW    23    1     -.13     .013       .0     -.13    .0195       .0  .000517
GW    24    1     -.13    .0195       .0     -.13     .026       .0  .000517
GW    25    1     -.13     .026       .0     -.13    .0325       .0  .000517
GW    26    1     -.13    .0325       .0     -.13     .039       .0  .000517
GW    27    1     -.13     .039       .0     -.13    .0455       .0  .000517
GW    28    1     -.13    .0455       .0     -.13     .052       .0  .000517
GW    29    1     -.13     .052       .0     -.13    .0585       .0  .000517
GW    30    1     -.13    .0585       .0     -.13     .065       .0  .000517
GW    31    1     -.13     .065       .0     -.13    .0715       .0  .000517
GW    32    1     -.13    .0715       .0     -.13     .078       .0  .000517
GW    33    1     -.13     .078       .0     -.13    .0845       .0  .000517
GW    34    1     -.13    .0845       .0     -.13     .091       .0  .000517
GW    35    1     -.13     .091       .0     -.13    .0975       .0  .000517
GW    36    1     -.13    .0975       .0     -.13     .104       .0  .000517
GW    37    1     -.13     .104       .0     -.13    .1105       .0  .000517
GW    38    1     -.13    .1105       .0     -.13     .117       .0  .000517
GW    39    1     -.13     .117       .0     -.13    .1235       .0  .000517
GW    40    1     -.13    .1235       .0     -.13      .13       .0  .000517
GW    41    1   -.1235     -.13       .0   -.1235   -.1235       .0  .000517
GW    42    1   -.1235   -.1235       .0   -.1235    -.117       .0  .000517
GW    43    1   -.1235    -.117       .0   -.1235   -.1105       .0  .000517
GW    44    1   -.1235   -.1105       .0   -.1235    -.104       .0  .000517
GW    45    1   -.1235    -.104       .0   -.1235   -.0975       .0  .000517
GW    46    1   -.1235   -.0975       .0   -.1235    -.091       .0  .000517
GW    47    1   -.1235    -.091       .0   -.1235   -.0845       .0  .000517
GW    48    1   -.1235   -.0845       .0   -.1235    -.078       .0  .000517
GW    49    1   -.1235    -.078       .0   -.1235   -.0715       .0  .000517
GW    50    1   -.1235   -.0715       .0   -.1235    -.065       .0  .000517
GW    51    1   -.1235    -.065       .0   -.1235   -.0585       .0  .000517
GW    52    1   -.1235   -.0585       .0   -.1235    -.052       .0  .000517
GW    53    1   -.1235    -.052       .0   -.1235   -.0455       .0  .000517
GW    54    1   -.1235   -.0455       .0   -.1235    -.039       .0  .000517
GW    55    1   -.1235    -.039       .0   -.1235   -.0325       .0  .000517
GW    56    1   -.1235   -.0325       .0   -.1235    -.026       .0  .000517
GW    57    1   -.1235    -.026       .0   -.1235   -.0195       .0  .000517
GW    58    1   -.1235   -.0195       .0   -.1235    -.013       .0  .000517
GW    59    1   -.1235    -.013       .0   -.1235   -.0065       .0  .000517
GW    60    1   -.1235   -.0065       .0   -.1235       .0       .0  .000517
GW    61    1   -.1235       .0       .0   -.1235    .0065       .0  .000517
GW    62    1   -.1235    .0065       .0   -.1235     .013       .0  .000517
GW    63    1   -.1235     .013       .0   -.1235    .0195       .0  .000517
GW    64    1   -.1235    .0195       .0   -.1235     .026       .0  .000517
GW    65    1   -.1235     .026       .0   -.1235    .0325       .0  .000517
GW    66    1   -.1235    .0325       .0   -.1235     .039       .0  .000517
GW    67    1   -.1235     .039       .0   -.1235    .0455       .0  .000517
GW    68    1   -.1235    .0455       .0   -.1235     .052       .0  .000517
GW    69    1   -.1235     .052       .0   -.1235    .0585       .0  .000517
GW    70    1   -.1235    .0585       .0   -.1235     .065       .0  .000517
GW    71    1   -.1235     .065       .0   -.1235    .0715       .0  .000517
GW    72    1   -.1235    .0715       .0   -.1235     .078       .0  .000517
GW    73    1   -.1235     .078       .0   -.1235    .0845       .0  .000517
GW    74    1   -.1235    .0845       .0   -.1235     .091       .0  .000517
GW    75    1   -.1235     .091       .0   -.1235    .0975       .0  .000517
GW    76    1   -.1235    .0975       .0   -.1235     .104       .0  .000517
GW    77    1   -.1235     .104       .0   -.1235    .1105       .0  .000517
GW    78    1   -.1235    .1105       .0   -.1235     .117       .0  .000517
GW    79    1   -.1235     .117       .0   -.1235    .1235       .0  .000517
GW    80    1   -.1235    .1235       .0   -.1235      .13       .0  .000517
GW    81    1    -.117     -.13       .0    -.117   -.1235       .0  .000517
GW    82    1    -.117   -.1235       .0    -.117    -.117       .0  .000517
GW    83    1    -.117    -.117       .0    -.117   -.1105       .0  .000517
GW    84    1    -.117   -.1105       .0    -.117    -.104       .0  .000517
GW    85    1    -.117    -.104       .0    -.117   -.0975       .0  .000517
GW    86    1    -.117   -.0975       .0    -.117    -.091       .0  .000517
GW    87    1    -.117    -.091       .0    -.117   -.0845       .0  .000517
GW    88    1    -.117   -.0845       .0    -.117    -.078       .0  .000517
GW    89    1    -.117    -.078       .0    -.117   -.0715       .0  .000517
GW    90    1    -.117   -.0715       .0    -.117    -.065       .0  .000517
GW    91    1    -.117    -.065       .0    -.117   -.0585       .0  .000517
GW    92    1    -.117   -.0585       .0    -.117    -.052       .0  .000517
GW    93    1    -.117    -.052       .0    -.117   -.0455       .0  .000517
GW    94    1    -.117   -.0455       .0    -.117    -.039       .0  .000517
GW    95    1    -.117    -.039       .0    -.117   -.0325       .0  .000517
GW    96    1    -.117   -.0325       .0    -.117    -.026       .0  .000517
GW    97    1    -.117    -.026       .0    -.117   -.0195       .0  .000517
GW    98    1    -.117   -.0195       .0    -.117    -.013       .0  .000517
GW    99    1    -.117    -.013       .0    -.117   -.0065       .0  .000517
GW   100    1    -.117   -.0065       .0    -.117       .0       .0  .000517
GW   101    1    -.117       .0       .0    -.117    .0065       .0  .000517
GW   102    1    -.117    .0065       .0    -.117     .013       .0  .000517
GW   103    1    -.117     .013       .0    -.117    .0195       .0  .000517
GW   104    1    -.117    .0195       .0    -.117     .026       .0  .000517
GW   105    1    -.117     .026       .0    -.117    .0325       .0  .000517
GW   106    1    -.117    .0325       .0    -.117     .039       .0  .000517
GW   107    1    -.117     .039       .0    -.117    .0455       .0  .000517
GW   108    1    -.117    .0455       .0    -.117     .052       .0  .000517
GW   109    1    -.117     .052       .0    -.117    .0585       .0  .000517
GW   110    1    -.117    .0585       .0    -.117     .065       .0  .000517
GW   111    1    -.117     .065       .0    -.117    .0715       .0  .000517
GW   112    1    -.117    .0715       .0    -.117     .078       .0  .000517
GW   113    1    -.117     .078       .0    -.117    .0845       .0  .000517
GW   114    1    -.117    .0845       .0    -.117     .091       .0  .000517
GW   115    1    -.117     .091       .0    -.117    .0975       .0  .000517
GW   116    1    -.117    .0975       .0    -.117     .104       .0  .000517
GW   117    1    -.117     .104       .0    -.117    .1105       .0  .000517
GW   118    1    -.117    .1105       .0    -.117     .117       .0  .000517
GW   119    1    -.117     .117       .0    -.117    .1235       .0  .000517
GW   120    1    -.117    .1235       .0    -.117      .13       .0  .000517
GW   121    1   -.1105     -.13       .0   -.1105   -.1235       .0  .000517
GW   122    1   -.1105   -.1235       .0   -.1105    -.117       .0  .000517
GW   123    1   -.1105    -.117       .0   -.1105   -.1105       .0  .000517
GW   124    1   -.1105   -.1105       .0   -.1105    -.104       .0  .000517
GW   125    1   -.1105    -.104       .0   -.1105   -.0975       .0  .000517
GW   126    1   -.1105   -.0975       .0   -.1105    -.091       .0  .000517
GW   127    1   -.1105    -.091       .0   -.1105   -.0845       .0  .000517
GW   128    1   -.1105   -.0845       .0   -.1105    -.078       .0  .000517
GW   129    1   -.1105    -.078       .0   -.1105   -.0715       .0  .000517
GW   130    1   -.1105   -.0715       .0   -.1105    -.065       .0  .000517
GW   131    1   -.1105    -.065       .0   -.1105   -.0585       .0  .000517
GW   132    1   -.1105   -.0585       .0   -.1105    -.052       .0  .000517
GW   133    1   -.1105    -.052       .0   -.1105   -.0455       .0  .000517
GW   134    1   -.1105   -.0455       .0   -.1105    -.039       .0  .000517
GW   135    1   -.1105    -.039       .0   -.1105   -.0325       .0  .000517
GW   136    1   -.1105   -.0325       .0   -.1105    -.026       .0  .000517
GW   137    1   -.1105    -.026       .0   -.1105   -.0195       .0  .000517
GW   138    1   -.1105   -.0195       .0   -.1105    -.013       .0  .000517
GW   139    1   -.1105    -.013       .0   -.1105   -.0065       .0  .000517
GW   140    1   -.1105   -.0065       .0   -.1105       .0       .0  .000517
GW   141    1   -.1105       .0       .0   -.1105    .0065       .0  .000517
GW   142    1   -.1105    .0065       .0   -.1105     .013       .0  .000517
GW   143    1   -.1105     .013       .0   -.1105    .0195       .0  .000517
GW   144    1   -.1105    .0195       .0   -.1105     .026       .0  .000517
GW   145    1   -.1105     .026       .0   -.1105    .0325       .0  .000517
GW   146    1   -.1105    .0325       .0   -.1105     .039       .0  .000517
GW   147    1   -.1105     .039       .0   -.1105    .0455       .0  .000517
GW   148    1   -.1105    .0455       .0   -.1105     .052       .0  .000517
GW   149    1   -.1105     .052       .0   -.1105    .0585       .0  .000517
GW   150    1   -.1105    .0585       .0   -.1105     .065       .0  .000517
GW   151    1   -.1105     .065       .0   -.1105    .0715       .0  .000517
GW   152    1   -.1105    .0715       .0   -.1105     .078       .0  .000517
GW   153    1   -.1105     .078       .0   -.1105    .0845       .0  .000517
GW   154    1   -.1105    .0845       .0   -.1105     .091       .0  .000517
GW   155    1   -.1105     .091       .0   -.1105    .0975       .0  .000517
GW   156    1   -.1105    .0975       .0   -.1105     .104       .0  .000517
GW   157    1   -.1105     .104       .0   -.1105    .1105       .0  .000517
GW   158    1   -.1105    .1105       .0   -.1105     .117       .0  .000517
GW   159    1   -.1105     .117       .0   -.1105    .1235       .0  .000517
GW   160    1   -.1105    .1235       .0   -.1105      .13       .0  .000517
GW   161    1    -.104     -.13       .0    -.104   -.1235       .0  .000517
GW   162    1    -.104   -.1235       .0    -.104    -.117       .0  .000517
GW   163    1    -.104    -.117       .0    -.104   -.1105       .0  .000517
GW   164    1    -.104   -.1105       .0    -.104    -.104       .0  .000517
GW   165    1    -.104    -.104       .0    -.104   -.0975       .0  .000517
GW   166    1    -.104   -.0975       .0    -.104    -.091       .0  .000517
GW   167    1    -.104    -.091       .0    -.104   -.0845       .0  .000517
GW   168    1    -.104   -.0845       .0    -.104    -.078       .0  .000517
GW   169    1    -.104    -.078       .0    -.104   -.0715       .0  .000517
GW   170    1    -.104   -.0715       .0    -.104    -.065       .0  .000517
GW   171    1    -.104    -.065       .0    -.104   -.0585       .0  .000517
GW   172    1    -.104   -.0585       .0    -.104    -.052       .0  .000517
GW   173    1    -.104    -.052       .0    -.104   -.0455       .0  .000517
GW   174    1    -.104   -.0455       .0    -.104    -.039       .0  .000517
GW   175    1    -.104    -.039       .0    -.104   -.0325       .0  .000517
GW   176    1    -.104   -.0325       .0    -.104    -.026       .0  .000517
GW   177    1    -.104    -.026       .0    -.104   -.0195       .0  .000517
GW   178    1    -.104   -.0195       .0    -.104    -.013       .0  .000517
GW   179    1    -.104    -.013       .0    -.104   -.0065       .0  .000517
GW   180    1    -.104   -.0065       .0    -.104       .0       .0  .000517
GW   181    1    -.104       .0       .0    -.104    .0065       .0  .000517
GW   182    1    -.104    .0065       .0    -.104     .013       .0  .000517
GW   183    1    -.104     .013       .0    -.104    .0195       .0  .000517
GW   184    1    -.104    .0195       .0    -.104     .026       .0  .000517
GW   185    1    -.104     .026       .0    -.104    .0325       .0  .000517
GW   186    1    -.104    .0325       .0    -.104     .039       .0  .000517
GW   187    1    -.104     .039       .0    -.104    .0455       .0  .000517
GW   188    1    -.104    .0455       .0    -.104     .052       .0  .000517
GW   189    1    -.104     .052       .0    -.104    .0585       .0  .000517
GW   190    1    -.104    .0585       .0    -.104     .065       .0  .000517
GW   191    1    -.104     .065       .0    -.104    .0715       .0  .000517
GW   192    1    -.104    .0715       .0    -.104     .078       .0  .000517
GW   193    1    -.104     .078       .0    -.104    .0845       .0  .000517
GW   194    1    -.104    .0845       .0    -.104     .091       .0  .000517
GW   195    1    -.104     .091       .0    -.104    .0975       .0  .000517
GW   196    1    -.104    .0975       .0    -.104     .104       .0  .000517
GW   197    1    -.104     .104       .0    -.104    .1105       .0  .000517
GW   198    1    -.104    .1105       .0    -.104     .117       .0  .000517
GW   199    1    -.104     .117       .0    -.104    .1235       .0  .000517
GW   200    1    -.104    .1235       .0    -.104      .13       .0  .000517
GW   201    1   -.0975     -.13       .0   -.0975   -.1235       .0  .000517
GW   202    1   -.0975   -.1235       .0   -.0975    -.117       .0  .000517
GW   203    1   -.0975    -.117       .0   -.0975   -.1105       .0  .000517
GW   204    1   -.0975   -.1105       .0   -.0975    -.104       .0  .000517
GW   205    1   -.0975    -.104       .0   -.0975   -.0975       .0  .000517
GW   206    1   -.0975   -.0975       .0   -.0975    -.091       .0  .000517
GW   207    1   -.0975    -.091       .0   -.0975   -.0845       .0  .000517
GW   208    1   -.0975   -.0845       .0   -.0975    -.078       .0  .000517
GW   209    1   -.0975    -.078       .0   -.0975   -.0715       .0  .000517
GW   210    1   -.0975   -.0715       .0   -.0975    -.065       .0  .000517
GW   211    1   -.0975    -.065       .0   -.0975   -.0585       .0  .000517
GW   212    1   -.0975   -.0585       .0   -.0975    -.052       .0  .000517
GW   213    1   -.0975    -.052       .0   -.0975   -.0455       .0  .000517
GW   214    1   -.0975   -.0455       .0   -.0975    -.039       .0  .000517
GW   215    1   -.0975    -.039       .0   -.0975   -.0325       .0  .000517
GW   216    1   -.0975   -.0325       .0   -.0975    -.026       .0  .000517
GW   217    1   -.0975    -.026       .0   -.0975   -.0195       .0  .000517
GW   218    1   -.0975   -.0195       .0   -.0975    -.013       .0  .000517
GW   219    1   -.0975    -.013       .0   -.0975   -.0065       .0  .000517
GW   220    1   -.0975   -.0065       .0   -.0975       .0       .0  .000517
GW   221    1   -.0975       .0       .0   -.0975    .0065       .0  .000517
GW   222    1   -.0975    .0065       .0   -.0975     .013       .0  .000517
GW   223    1   -.0975     .013       .0   -.0975    .0195       .0  .000517
GW   224    1   -.0975    .0195       .0   -.0975     .026       .0  .000517
GW   225    1   -.0975     .026       .0   -.0975    .0325       .0  .000517
GW   226    1   -.0975    .0325       .0   -.0975     .039       .0  .000517
GW   227    1   -.0975     .039       .0   -.0975    .0455       .0  .000517
GW   228    1   -.0975    .0455       .0   -.0975     .052       .0  .000517
GW   229    1   -.0975     .052       .0   -.0975    .0585       .0  .000517
GW   230    1   -.0975    .0585       .0   -.0975     .065       .0  .000517
GW   231    1   -.0975     .065       .0   -.0975    .0715       .0  .000517
GW   232    1   -.0975    .0715       .0   -.0975     .078       .0  .000517
GW   233    1   -.0975     .078       .0   -.0975    .0845       .0  .000517
GW   234    1   -.0975    .0845       .0   -.0975     .091       .0  .000517
GW   235    1   -.0975     .091       .0   -.0975    .0975       .0  .000517
GW   236    1   -.0975    .0975       .0   -.0975     .104       .0  .000517
GW   237    1   -.0975     .104       .0   -.0975    .1105       .0  .000517
GW   238    1   -.0975    .1105       .0   -.0975     .117       .0  .000517
GW   239    1   -.0975     .117       .0   -.0975    .1235       .0  .000517
GW   240    1   -.0975    .1235       .0   -.0975      .13       .0  .000517
GW   241    1    -.091     -.13       .0    -.091   -.1235       .0  .000517
GW   242    1    -.091   -.1235       .0    -.091    -.117       .0  .000517
GW   243    1    -.091    -.117       .0    -.091   -.1105       .0  .000517
GW   244    1    -.091   -.1105       .0    -.091    -.104       .0  .000517
GW   245    1    -.091    -.104       .0    -.091   -.0975       .0  .000517
GW   246    1    -.091   -.0975       .0    -.091    -.091       .0  .000517
GW   247    1    -.091    -.091       .0    -.091   -.0845       .0  .000517
GW   248    1    -.091   -.0845       .0    -.091    -.078       .0  .000517
GW   249    1    -.091    -.078       .0    -.091   -.0715       .0  .000517
GW   250    1    -.091   -.0715       .0    -.091    -.065       .0  .000517
GW   251    1    -.091    -.065       .0    -.091   -.0585       .0  .000517
GW   252    1    -.091   -.0585       .0    -.091    -.052       .0  .000517
GW   253    1    -.091    -.052       .0    -.091   -.0455       .0  .000517
GW   254    1    -.091   -.0455       .0    -.091    -.039       .0  .000517
GW   255    1    -.091    -.039       .0    -.091   -.0325       .0  .000517
GW   256    1    -.091   -.0325       .0    -.091    -.026       .0  .000517
GW   257    1    -.091    -.026       .0    -.091   -.0195       .0  .000517
GW   258    1    -.091   -.0195       .0    -.091    -.013       .0  .000517
GW   259    1    -.091    -.013       .0    -.091   -.0065       .0  .000517
GW   260    1    -.091   -.0065       .0    -.091       .0       .0  .000517
GW   261    1    -.091       .0       .0    -.091    .0065       .0  .000517
GW   262    1    -.091    .0065       .0    -.091     .013       .0  .000517
GW   263    1    -.091     .013       .0    -.091    .0195       .0  .000517
GW   264    1    -.091    .0195       .0    -.091     .026       .0  .000517
GW   265    1    -.091     .026       .0    -.091    .0325       .0  .000517
GW   266    1    -.091    .0325       .0    -.091     .039       .0  .000517
GW   267    1    -.091     .039       .0    -.091    .0455       .0  .000517
GW   268    1    -.091    .0455       .0    -.091     .052       .0  .000517
GW   269    1    -.091     .052       .0    -.091    .0585       .0  .000517
GW   270    1    -.091    .0585       .0    -.091     .065       .0  .000517
GW   271    1    -.091     .065       .0    -.091    .0715       .0  .000517
GW   272    1    -.091    .0715       .0    -.091     .078       .0  .000517
GW   273    1    -.091     .078       .0    -.091    .0845       .0  .000517
GW   274    1    -.091    .0845       .0    -.091     .091       .0  .000517
GW   275    1    -.091     .091       .0    -.091    .0975       .0  .000517
GW   276    1    -.091    .0975       .0    -.091     .104       .0  .000517
GW   277    1    -.091     .104       .0    -.091    .1105       .0  .000517
GW   278    1    -.091    .1105       .0    -.091     .117       .0  .000517
GW   279    1    -.091     .117       .0    -.091    .1235       .0  .000517
GW   280    1    -.091    .1235       .0    -.091      .13       .0  .000517
GW   281    1   -.0845     -.13       .0   -.0845   -.1235       .0  .000517
GW   282    1   -.0845   -.1235       .0   -.0845    -.117       .0  .000517
GW   283    1   -.0845    -.117       .0   -.0845   -.1105       .0  .000517
GW   284    1   -.0845   -.1105       .0   -.0845    -.104       .0  .000517
GW   285    1   -.0845    -.104       .0   -.0845   -.0975       .0  .000517
GW   286    1   -.0845   -.0975       .0   -.0845    -.091       .0  .000517
GW   287    1   -.0845    -.091       .0   -.0845   -.0845       .0  .000517
GW   288    1   -.0845   -.0845       .0   -.0845    -.078       .0  .000517
GW   289    1   -.0845    -.078       .0   -.0845   -.0715       .0  .000517
GW   290    1   -.0845   -.0715       .0   -.0845    -.065       .0  .000517
GW   291    1   -.0845    -.065       .0   -.0845   -.0585       .0  .000517
GW   292    1   -.0845   -.0585       .0   -.0845    -.052       .0  .000517
GW   293    1   -.0845    -.052       .0   -.0845   -.0455       .0  .000517
GW   294    1   -.0845   -.0455       .0   -.0845    -.039       .0  .000517
GW   295    1   -.0845    -.039       .0   -.0845   -.0325       .0  .000517
GW   296    1   -.0845   -.0325       .0   -.0845    -.026       .0  .000517
GW   297    1   -.0845    -.026       .0   -.0845   -.0195       .0  .000517
GW   298    1   -.0845   -.0195       .0   -.0845    -.013       .0  .000517
GW   299    1   -.0845    -.013       .0   -.0845   -.0065       .0  .000517
GW   300    1   -.0845   -.0065       .0   -.0845       .0       .0  .000517
GW   301    1   -.0845       .0       .0   -.0845    .0065       .0  .000517
GW   302    1   -.0845    .0065       .0   -.0845     .013       .0  .000517
GW   303    1   -.0845     .013       .0   -.0845    .0195       .0  .000517
GW   304    1   -.0845    .0195       .0   -.0845     .026       .0  .000517
GW   305    1   -.0845     .026       .0   -.0845    .0325       .0  .000517
GW   306    1   -.0845    .0325       .0   -.0845     .039       .0  .000517
GW   307    1   -.0845     .039       .0   -.0845    .0455       .0  .000517
GW   308    1   -.0845    .0455       .0   -.0845     .052       .0  .000517
GW   309    1   -.0845     .052       .0   -.0845    .0585       .0  .000517
GW   310    1   -.0845    .0585       .0   -.0845     .065       .0  .000517
GW   311    1   -.0845     .065       .0   -.0845    .0715       .0  .000517
GW   312    1   -.0845    .0715       .0   -.0845     .078       .0  .000517
GW   313    1   -.0845     .078       .0   -.0845    .0845       .0  .000517
GW   314    1   -.0845    .0845       .0   -.0845     .091       .0  .000517
GW   315    1   -.0845     .091       .0   -.0845    .0975       .0  .000517
GW   316    1   -.0845    .0975       .0   -.0845     .104       .0  .000517
GW   317    1   -.0845     .104       .0   -.0845    .1105       .0  .000517
GW   318    1   -.0845    .1105       .0   -.0845     .117       .0  .000517
GW   319    1   -.0845     .117       .0   -.0845    .1235       .0  .000517
GW   320    1   -.0845    .1235       .0   -.0845      .13       .0  .000517
GW   321    1    -.078     -.13       .0    -.078   -.1235       .0  .000517
GW   322    1    -.078   -.1235       .0    -.078    -.117       .0  .000517
GW   323    1    -.078    -.117       .0    -.078   -.1105       .0  .000517
GW   324    1    -.078   -.1105       .0    -.078    -.104       .0  .000517
GW   325    1    -.078    -.104       .0    -.078   -.0975       .0  .000517
GW   326    1    -.078   -.0975       .0    -.078    -.091       .0  .000517
GW   327    1    -.078    -.091       .0    -.078   -.0845       .0  .000517
GW   328    1    -.078   -.0845       .0    -.078    -.078       .0  .000517
GW   329    1    -.078    -.078       .0    -.078   -.0715       .0  .000517
GW   330    1    -.078   -.0715       .0    -.078    -.065       .0  .000517
GW   331    1    -.078    -.065       .0    -.078   -.0585       .0  .000517
GW   332    1    -.078   -.0585       .0    -.078    -.052       .0  .000517
GW   333    1    -.078    -.052       .0    -.078   -.0455       .0  .000517
GW   334    1    -.078   -.0455       .0    -.078    -.039       .0  .000517
GW   335    1    -.078    -.039       .0    -.078   -.0325       .0  .000517
GW   336    1    -.078   -.0325       .0    -.078    -.026       .0  .000517
GW   337    1    -.078    -.026       .0    -.078   -.0195       .0  .000517
GW   338    1    -.078   -.0195       .0    -.078    -.013       .0  .000517
GW   339    1    -.078    -.013       .0    -.078   -.0065       .0  .000517
GW   340    1    -.078   -.0065       .0    -.078       .0       .0  .000517
GW   341    1    -.078       .0       .0    -.078    .0065       .0  .000517
GW   342    1    -.078    .0065       .0    -.078     .013       .0  .000517
GW   343    1    -.078     .013       .0    -.078    .0195       .0  .000517
GW   344    1    -.078    .0195       .0    -.078     .026       .0  .000517
GW   345    1    -.078     .026       .0    -.078    .0325       .0  .000517
GW   346    1    -.078    .0325       .0    -.078     .039       .0  .000517
GW   347    1    -.078     .039       .0    -.078    .0455       .0  .000517
GW   348    1    -.078    .0455       .0    -.078     .052       .0  .000517
GW   349    1    -.078     .052       .0    -.078    .0585       .0  .000517
GW   350    1    -.078    .0585       .0    -.078     .065       .0  .000517
GW   351    1    -.078     .065       .0    -.078    .0715       .0  .000517
GW   352    1    -.078    .0715       .0    -.078     .078       .0  .000517
GW   353    1    -.078     .078       .0    -.078    .0845       .0  .000517
GW   354    1    -.078    .0845       .0    -.078     .091       .0  .000517
GW   355    1    -.078     .091       .0    -.078    .0975       .0  .000517
GW   356    1    -.078    .0975       .0    -.078     .104       .0  .000517
GW   357    1    -.078     .104       .0    -.078    .1105       .0  .000517
GW   358    1    -.078    .1105       .0    -.078     .117       .0  .000517
GW   359    1    -.078     .117       .0    -.078    .1235       .0  .000517
GW   360    1    -.078    .1235       .0    -.078      .13       .0  .000517
GW   361    1   -.0715     -.13       .0   -.0715   -.1235       .0  .000517
GW   362    1   -.0715   -.1235       .0   -.0715    -.117       .0  .000517
GW   363    1   -.0715    -.117       .0   -.0715   -.1105       .0  .000517
GW   364    1   -.0715   -.1105       .0   -.0715    -.104       .0  .000517
GW   365    1   -.0715    -.104       .0   -.0715   -.0975       .0  .000517
GW   366    1   -.0715   -.0975       .0   -.0715    -.091       .0  .000517
GW   367    1   -.0715    -.091       .0   -.0715   -.0845       .0  .000517
GW   368    1   -.0715   -.0845       .0   -.0715    -.078       .0  .000517
GW   369    1   -.0715    -.078       .0   -.0715   -.0715       .0  .000517
GW   370    1   -.0715   -.0715       .0   -.0715    -.065       .0  .000517
GW   371    1   -.0715    -.065       .0   -.0715   -.0585       .0  .000517
GW   372    1   -.0715   -.0585       .0   -.0715    -.052       .0  .000517
GW   373    1   -.0715    -.052       .0   -.0715   -.0455       .0  .000517
GW   374    1   -.0715   -.0455       .0   -.0715    -.039       .0  .000517
GW   375    1   -.0715    -.039       .0   -.0715   -.0325       .0  .000517
GW   376    1   -.0715   -.0325       .0   -.0715    -.026       .0  .000517
GW   377    1   -.0715    -.026       .0   -.0715   -.0195       .0  .000517
GW   378    1   -.0715   -.0195       .0   -.0715    -.013       .0  .000517
GW   379    1   -.0715    -.013       .0   -.0715   -.0065       .0  .000517
GW   380    1   -.0715   -.0065       .0   -.0715       .0       .0  .000517
GW   381    1   -.0715       .0       .0   -.0715    .0065       .0  .000517
GW   382    1   -.0715    .0065       .0   -.0715     .013       .0  .000517