CM Moxon Rectangle
CE
GW 1  5 10.4 -22 0 16.3 -22 0 0.1
GW 2  35 16.3 -22 0 16.3 22 0 0.1
GW 3  5 16.3 22 0 10.4 22 0 0.1
GW 4  7 8.4 -22 0 0 -22 0 0.1
GW 5  35 0 -22 0 0 22 0 0.1
GW 6  7 0 22 0 8.4 22 0 0.1
GS 0 0 0.001
GE 0
EX 0 2 18 0 1 0
FR 0 1 0 0 2450 1
RP 0 1 361 1000 90 0 1 1
RP 0 181 1 1000 -90 0 1 1
EN
